Test_Network/condensed/network_17/Feeder_3/Lines.txt
New Line.LINE1 Bus1=1 Bus2=2 phases=3 Linecode=3c_300_SAC_XC Length=0.66082 Units=m
New Line.LINE2 Bus1=2 Bus2=3 phases=3 Linecode=3c_300_SAC_XC Length=0.06597 Units=m
New Line.LINE3 Bus1=3 Bus2=4 phases=3 Linecode=3c_300_SAC_XC Length=0.065123 Units=m
New Line.LINE4 Bus1=4 Bus2=5 phases=3 Linecode=3c_300_SAC_XC Length=0.064498 Units=m
New Line.LINE5 Bus1=5 Bus2=6 phases=3 Linecode=3c_300_SAC_XC Length=0.065803 Units=m
New Line.LINE6 Bus1=6 Bus2=7 phases=3 Linecode=3c_300_SAC_XC Length=0.065299 Units=m
New Line.LINE7 Bus1=7 Bus2=8 phases=3 Linecode=3c_300_SAC_XC Length=0.065 Units=m
New Line.LINE8 Bus1=8 Bus2=9 phases=3 Linecode=3c_300_SAC_XC Length=0.065115 Units=m
New Line.LINE9 Bus1=9 Bus2=10 phases=3 Linecode=3c_300_SAC_XC Length=0.066038 Units=m
New Line.LINE10 Bus1=10 Bus2=11 phases=3 Linecode=3c_300_SAC_XC Length=0.45841 Units=m
New Line.LINE11 Bus1=11 Bus2=12 phases=3 Linecode=3c_300_SAC_XC Length=1.0871 Units=m
New Line.LINE12 Bus1=12 Bus2=13 phases=3 Linecode=3c_300_SAC_XC Length=0.90427 Units=m
New Line.LINE13 Bus1=13 Bus2=14 phases=3 Linecode=3c_300_SAC_XC Length=0.17385 Units=m
New Line.LINE14 Bus1=14 Bus2=15 phases=3 Linecode=3c_300_SAC_XC Length=0.17503 Units=m
New Line.LINE15 Bus1=15 Bus2=16 phases=3 Linecode=3c_300_SAC_XC Length=0.17409 Units=m
New Line.LINE16 Bus1=16 Bus2=17 phases=3 Linecode=3c_300_SAC_XC Length=0.17401 Units=m
New Line.LINE17 Bus1=17 Bus2=18 phases=3 Linecode=3c_300_SAC_XC Length=0.17447 Units=m
New Line.LINE18 Bus1=18 Bus2=19 phases=3 Linecode=3c_300_SAC_XC Length=0.17361 Units=m
New Line.LINE19 Bus1=19 Bus2=20 phases=3 Linecode=3c_300_SAC_XC Length=3.8767 Units=m
New Line.LINE20 Bus1=20 Bus2=21 phases=3 Linecode=3c_300_SAC_XC Length=0.36101 Units=m
New Line.LINE21 Bus1=21 Bus2=22 phases=3 Linecode=3c_300_SAC_XC Length=0.23565 Units=m
New Line.LINE22 Bus1=22 Bus2=23 phases=3 Linecode=3c_300_SAC_XC Length=0.26461 Units=m
New Line.LINE23 Bus1=23 Bus2=24 phases=3 Linecode=3c_300_SAC_XC Length=0.28481 Units=m
New Line.LINE24 Bus1=24 Bus2=25 phases=3 Linecode=3c_300_SAC_XC Length=0.54863 Units=m
New Line.LINE25 Bus1=25 Bus2=26 phases=3 Linecode=3c_300_SAC_XC Length=0.28019 Units=m
New Line.LINE26 Bus1=26 Bus2=27 phases=3 Linecode=3c_300_SAC_XC Length=29.9891 Units=m
New Line.LINE27 Bus1=27 Bus2=28 phases=3 Linecode=3c_300_SAC_XC Length=0.76123 Units=m
New Line.LINE28 Bus1=28 Bus2=29 phases=3 Linecode=3c_300_SAC_XC Length=2.72 Units=m
New Line.LINE29 Bus1=29 Bus2=30 phases=3 Linecode=4c_.25 Length=0.62935 Units=m
New Line.LINE31 Bus1=30 Bus2=32 phases=3 Linecode=4c_.25 Length=13.6295 Units=m
New Line.LINE33 Bus1=32 Bus2=34 phases=3 Linecode=4c_.25 Length=6.2054 Units=m
New Line.LINE35 Bus1=34 Bus2=36 phases=3 Linecode=4c_.25 Length=24.2542 Units=m
New Line.LINE57 Bus1=52 Bus2=58 phases=3 Linecode=2c_.04 Length=6.0684 Units=m
New Line.LINE75 Bus1=68 Bus2=76 phases=3 Linecode=2c_.04 Length=5.4045 Units=m
New Line.LINE102 Bus1=95 Bus2=103 phases=3 Linecode=2c_.04 Length=5.4849 Units=m
New Line.LINE110 Bus1=101 Bus2=111 phases=3 Linecode=2c_.04 Length=5.5758 Units=m
New Line.LINE162 Bus1=151 Bus2=163 phases=3 Linecode=2c_.04 Length=5.4563 Units=m
New Line.LINE199 Bus1=192 Bus2=200 phases=3 Linecode=2c_.04 Length=4.7969 Units=m
New Line.LINE206 Bus1=198 Bus2=207 phases=3 Linecode=2c_.04 Length=5.2358 Units=m
New Line.LINE257 Bus1=252 Bus2=258 phases=3 Linecode=2c_.04 Length=6.7145 Units=m
New Line.LINE291 Bus1=288 Bus2=292 phases=3 Linecode=2c_.04 Length=5.912 Units=m
New Line.LINE296 Bus1=292 Bus2=297 phases=3 Linecode=2c_.04 Length=4.5102 Units=m
New Line.LINE307 Bus1=302 Bus2=308 phases=3 Linecode=2c_.04 Length=5.127 Units=m
New Line.LINE308 Bus1=302 Bus2=309 phases=3 Linecode=2c_.04 Length=5.127 Units=m
New Line.LINE320 Bus1=316 Bus2=321 phases=3 Linecode=2c_.04 Length=5.9846 Units=m
New Line.LINE326 Bus1=321 Bus2=327 phases=3 Linecode=2c_.04 Length=4.7102 Units=m
New Line.LINE344 Bus1=339 Bus2=345 phases=3 Linecode=2c_.04 Length=4.4045 Units=m
New Line.LINE345 Bus1=339 Bus2=346 phases=3 Linecode=2c_.04 Length=5.6668 Units=m
New Line.LINE346 Bus1=339 Bus2=347 phases=3 Linecode=2c_.04 Length=5.6668 Units=m
New Line.LINE351 Bus1=345 Bus2=352 phases=3 Linecode=2c_.04 Length=3.3834 Units=m
New Line.LINE352 Bus1=345 Bus2=353 phases=3 Linecode=2c_.04 Length=3.3834 Units=m
New Line.LINE362 Bus1=359 Bus2=363 phases=3 Linecode=2c_.04 Length=4.8938 Units=m
New Line.LINE363 Bus1=359 Bus2=364 phases=3 Linecode=2c_.04 Length=4.8938 Units=m
New Line.LINE455 Bus1=450 Bus2=456 phases=3 Linecode=4c_.25 Length=17.1616 Units=m
New Line.LINE456 Bus1=450 Bus2=457 phases=3 Linecode=2c_.04 Length=14.192 Units=m
New Line.LINE461 Bus1=456 Bus2=462 phases=3 Linecode=4c_.25 Length=8.0254 Units=m
New Line.LINE467 Bus1=460 Bus2=468 phases=3 Linecode=3c_.04 Length=3.4977 Units=m
New Line.LINE469 Bus1=462 Bus2=470 phases=3 Linecode=4c_.25 Length=1.1721 Units=m
New Line.LINE474 Bus1=466 Bus2=475 phases=3 Linecode=3c_.04 Length=4.3701 Units=m
New Line.LINE477 Bus1=470 Bus2=478 phases=3 Linecode=4c_.25 Length=5.3043 Units=m
New Line.LINE485 Bus1=478 Bus2=486 phases=3 Linecode=2c_.04 Length=0.10962 Units=m
New Line.LINE493 Bus1=486 Bus2=494 phases=3 Linecode=2c_.04 Length=0.077782 Units=m
New Line.LINE500 Bus1=494 Bus2=501 phases=3 Linecode=2c_.04 Length=0.19712 Units=m
New Line.LINE507 Bus1=501 Bus2=508 phases=3 Linecode=2c_.04 Length=3.6292 Units=m
New Line.LINE510 Bus1=503 Bus2=511 phases=3 Linecode=2c_.04 Length=4.2771 Units=m
New Line.LINE515 Bus1=508 Bus2=516 phases=3 Linecode=2c_.04 Length=0.21497 Units=m
New Line.LINE519 Bus1=512 Bus2=520 phases=3 Linecode=2c_.04 Length=3.4915 Units=m
New Line.LINE523 Bus1=516 Bus2=524 phases=3 Linecode=2c_.04 Length=0.17582 Units=m
New Line.LINE530 Bus1=524 Bus2=531 phases=3 Linecode=2c_.04 Length=0.080081 Units=m
New Line.LINE537 Bus1=531 Bus2=538 phases=3 Linecode=2c_.04 Length=0.17441 Units=m
New Line.LINE542 Bus1=536 Bus2=543 phases=3 Linecode=2c_.04 Length=4.1848 Units=m
New Line.LINE543 Bus1=536 Bus2=544 phases=3 Linecode=2c_.04 Length=4.1848 Units=m
New Line.LINE545 Bus1=538 Bus2=546 phases=3 Linecode=2c_.04 Length=10.0547 Units=m
New Line.LINE551 Bus1=546 Bus2=552 phases=3 Linecode=2c_.04 Length=0.18102 Units=m
New Line.LINE556 Bus1=551 Bus2=557 phases=3 Linecode=4c_.06 Length=4.2076 Units=m
New Line.LINE558 Bus1=552 Bus2=559 phases=3 Linecode=2c_.04 Length=0.15769 Units=m
New Line.LINE564 Bus1=557 Bus2=565 phases=3 Linecode=4c_.04 Length=5.6087 Units=m
New Line.LINE566 Bus1=559 Bus2=567 phases=3 Linecode=2c_.04 Length=0.16317 Units=m
New Line.LINE570 Bus1=563 Bus2=571 phases=3 Linecode=2c_.04 Length=4.1319 Units=m
New Line.LINE571 Bus1=563 Bus2=572 phases=3 Linecode=2c_.04 Length=4.1319 Units=m
New Line.LINE577 Bus1=567 Bus2=578 phases=3 Linecode=2c_.04 Length=0.16311 Units=m
New Line.LINE586 Bus1=578 Bus2=587 phases=3 Linecode=2c_.04 Length=0.16197 Units=m
New Line.LINE595 Bus1=587 Bus2=596 phases=3 Linecode=2c_.04 Length=1.7343 Units=m
New Line.LINE606 Bus1=596 Bus2=607 phases=3 Linecode=2c_.04 Length=4.5293 Units=m
New Line.LINE613 Bus1=602 Bus2=614 phases=3 Linecode=2c_.04 Length=4.9296 Units=m
New Line.LINE625 Bus1=615 Bus2=626 phases=3 Linecode=2c_.04 Length=4.6955 Units=m
New Line.LINE637 Bus1=627 Bus2=638 phases=3 Linecode=2c_.04 Length=5.7705 Units=m
New Line.LINE642 Bus1=632 Bus2=643 phases=3 Linecode=2c_.04 Length=4.4508 Units=m
New Line.LINE643 Bus1=632 Bus2=644 phases=3 Linecode=2c_.04 Length=4.4508 Units=m
New Line.LINE650 Bus1=639 Bus2=651 phases=3 Linecode=2c_.04 Length=4.8816 Units=m
New Line.LINE654 Bus1=642 Bus2=655 phases=3 Linecode=2c_.04 Length=2.6915 Units=m
New Line.LINE655 Bus1=642 Bus2=656 phases=3 Linecode=2c_.04 Length=2.6915 Units=m
New Line.LINE755 Bus1=748 Bus2=756 phases=3 Linecode=25_SAC_PC Length=3.366 Units=m
New Line.LINE791 Bus1=784 Bus2=792 phases=3 Linecode=2c_.04 Length=4.3451 Units=m
New Line.LINE802 Bus1=797 Bus2=803 phases=3 Linecode=4c_.04 Length=14.7304 Units=m
New Line.LINE849 Bus1=841 Bus2=850 phases=3 Linecode=2c_.04 Length=4.5531 Units=m
New Line.LINE857 Bus1=848 Bus2=858 phases=3 Linecode=2c_.04 Length=3.7162 Units=m
New Line.LINE880 Bus1=873 Bus2=881 phases=3 Linecode=4c_.04 Length=9.6412 Units=m
New Line.LINE881 Bus1=873 Bus2=882 phases=3 Linecode=4c_.06 Length=0.3588 Units=m
New Line.LINE891 Bus1=882 Bus2=892 phases=3 Linecode=4c_.06 Length=0.2512 Units=m
New Line.LINE899 Bus1=892 Bus2=900 phases=3 Linecode=4c_.06 Length=0.31878 Units=m
New Line.LINE907 Bus1=900 Bus2=908 phases=3 Linecode=4c_.06 Length=0.88128 Units=m
New Line.LINE915 Bus1=908 Bus2=916 phases=3 Linecode=4c_.06 Length=3.4833 Units=m
New Line.LINE922 Bus1=914 Bus2=923 phases=3 Linecode=2c_.04 Length=5.1685 Units=m
New Line.LINE924 Bus1=915 Bus2=925 phases=3 Linecode=2c_.04 Length=5.428 Units=m
New Line.LINE925 Bus1=916 Bus2=926 phases=3 Linecode=4c_.06 Length=0.21593 Units=m
New Line.LINE933 Bus1=926 Bus2=934 phases=3 Linecode=4c_.06 Length=0.22064 Units=m
New Line.LINE937 Bus1=930 Bus2=938 phases=3 Linecode=.04 Length=9.2308 Units=m
New Line.LINE938 Bus1=930 Bus2=939 phases=3 Linecode=4c_.06 Length=1.9172 Units=m
New Line.LINE942 Bus1=934 Bus2=943 phases=3 Linecode=4c_.06 Length=0.5583 Units=m
New Line.LINE947 Bus1=939 Bus2=948 phases=3 Linecode=4c_.06 Length=0.16033 Units=m
New Line.LINE951 Bus1=943 Bus2=952 phases=3 Linecode=4c_.06 Length=3.5585 Units=m
New Line.LINE956 Bus1=948 Bus2=957 phases=3 Linecode=4c_.06 Length=0.10102 Units=m
New Line.LINE960 Bus1=952 Bus2=961 phases=3 Linecode=4c_.04 Length=0.69649 Units=m
New Line.LINE963 Bus1=957 Bus2=964 phases=3 Linecode=4c_.06 Length=0.10255 Units=m
New Line.LINE967 Bus1=961 Bus2=968 phases=3 Linecode=4c_.04 Length=0.17889 Units=m
New Line.LINE970 Bus1=964 Bus2=971 phases=3 Linecode=4c_.06 Length=0.11904 Units=m
New Line.LINE974 Bus1=968 Bus2=975 phases=3 Linecode=4c_.04 Length=0.2498 Units=m
New Line.LINE977 Bus1=971 Bus2=978 phases=3 Linecode=4c_.06 Length=4.9888 Units=m
New Line.LINE981 Bus1=975 Bus2=982 phases=3 Linecode=4c_.04 Length=0.49028 Units=m
New Line.LINE983 Bus1=976 Bus2=984 phases=3 Linecode=2c_.04 Length=4.3464 Units=m
New Line.LINE985 Bus1=977 Bus2=986 phases=3 Linecode=2c_.04 Length=6.8615 Units=m
New Line.LINE986 Bus1=978 Bus2=987 phases=3 Linecode=4c_.06 Length=0.21582 Units=m
New Line.LINE990 Bus1=982 Bus2=991 phases=3 Linecode=4c_.04 Length=1.4876 Units=m
New Line.LINE993 Bus1=987 Bus2=994 phases=3 Linecode=4c_.06 Length=0.29689 Units=m
New Line.LINE995 Bus1=991 Bus2=996 phases=3 Linecode=4c_.04 Length=6.8268 Units=m
New Line.LINE998 Bus1=994 Bus2=999 phases=3 Linecode=4c_.06 Length=0.30747 Units=m
New Line.LINE1003 Bus1=999 Bus2=1004 phases=3 Linecode=4c_.06 Length=0.52243 Units=m
New Line.LINE1008 Bus1=1004 Bus2=1009 phases=3 Linecode=4c_.06 Length=1.4229 Units=m
New Line.LINE1013 Bus1=1009 Bus2=1014 phases=3 Linecode=2c_.04 Length=1.0742 Units=m
New Line.LINE1018 Bus1=1014 Bus2=1019 phases=3 Linecode=2c_.04 Length=0.2053 Units=m
New Line.LINE1023 Bus1=1019 Bus2=1024 phases=3 Linecode=2c_.04 Length=0.23697 Units=m
New Line.LINE1026 Bus1=1021 Bus2=1027 phases=3 Linecode=2c_.04 Length=2.4303 Units=m
New Line.LINE1029 Bus1=1024 Bus2=1030 phases=3 Linecode=2c_.04 Length=0.16364 Units=m
New Line.LINE1034 Bus1=1030 Bus2=1035 phases=3 Linecode=2c_.04 Length=8.9703 Units=m
New Line.LINE1036 Bus1=1031 Bus2=1037 phases=3 Linecode=2c_.04 Length=5.6378 Units=m
New Line.LINE1061 Bus1=1057 Bus2=1062 phases=3 Linecode=2c_.04 Length=5.9029 Units=m
New Line.LINE1063 Bus1=1058 Bus2=1064 phases=3 Linecode=2c_.04 Length=5.3273 Units=m
New Line.LINE1070 Bus1=1066 Bus2=1071 phases=3 Linecode=2c_.04 Length=5.1844 Units=m
New Line.LINE1082 Bus1=1078 Bus2=1083 phases=3 Linecode=2c_.04 Length=5.6241 Units=m
New Line.LINE1098 Bus1=1094 Bus2=1099 phases=3 Linecode=2c_.04 Length=4.4391 Units=m
New Line.LINE1102 Bus1=1097 Bus2=1103 phases=3 Linecode=2c_.04 Length=5.9218 Units=m
New Line.LINECmpd_0 Bus1=565 Bus2=615 phases=3 Linecode=2c_.04 Length=3.30708 Units=m
New Line.LINECmpd_1 Bus1=976 Bus2=1039 phases=3 Linecode=2c_.04 Length=13.83188 Units=m
New Line.LINECmpd_2 Bus1=756 Bus2=888 phases=3 Linecode=25_SAC_PC Length=12.791845 Units=m
New Line.LINECmpd_3 Bus1=359 Bus2=445 phases=3 Linecode=2c_.04 Length=17.863558 Units=m
New Line.LINECmpd_4 Bus1=95 Bus2=192 phases=3 Linecode=2c_.04 Length=7.22043 Units=m
New Line.LINECmpd_5 Bus1=512 Bus2=632 phases=3 Linecode=2c_.04 Length=8.305722 Units=m
New Line.LINECmpd_6 Bus1=566 Bus2=627 phases=3 Linecode=2c_.04 Length=8.09387 Units=m
New Line.LINECmpd_7 Bus1=78 Bus2=279 phases=3 Linecode=4c_.25 Length=86.59795 Units=m
New Line.LINECmpd_8 Bus1=52 Bus2=78 phases=3 Linecode=4c_.25 Length=29.8061 Units=m
New Line.LINECmpd_9 Bus1=1066 Bus2=1122 phases=3 Linecode=2c_.04 Length=12.52257 Units=m
New Line.LINECmpd_10 Bus1=627 Bus2=734 phases=3 Linecode=2c_.04 Length=13.983375 Units=m
New Line.LINECmpd_11 Bus1=915 Bus2=995 phases=3 Linecode=2c_.04 Length=12.83773 Units=m
New Line.LINECmpd_12 Bus1=316 Bus2=331 phases=3 Linecode=4c_.25 Length=23.1557 Units=m
New Line.LINECmpd_13 Bus1=642 Bus2=822 phases=3 Linecode=2c_.04 Length=18.42933 Units=m
New Line.LINECmpd_14 Bus1=302 Bus2=341 phases=3 Linecode=2c_.04 Length=14.77645 Units=m
New Line.LINECmpd_15 Bus1=424 Bus2=551 phases=3 Linecode=4c_.06 Length=25.44466 Units=m
New Line.LINECmpd_16 Bus1=646 Bus2=797 phases=3 Linecode=4c_.06 Length=15.93123 Units=m
New Line.LINECmpd_17 Bus1=639 Bus2=768 phases=3 Linecode=2c_.04 Length=13.265318 Units=m
New Line.LINECmpd_18 Bus1=996 Bus2=1021 phases=3 Linecode=2c_.04 Length=2.14587 Units=m
New Line.LINECmpd_19 Bus1=596 Bus2=753 phases=3 Linecode=2c_.04 Length=17.739379 Units=m
New Line.LINECmpd_20 Bus1=1021 Bus2=1066 phases=3 Linecode=2c_.04 Length=9.28829 Units=m
New Line.LINECmpd_21 Bus1=466 Bus2=563 phases=3 Linecode=2c_.04 Length=8.05016 Units=m
New Line.LINECmpd_22 Bus1=615 Bus2=744 phases=3 Linecode=2c_.04 Length=11.85381 Units=m
New Line.LINECmpd_23 Bus1=383 Bus2=391 phases=3 Linecode=4c_.25 Length=25.2208 Units=m
New Line.LINECmpd_24 Bus1=58 Bus2=101 phases=3 Linecode=2c_.04 Length=2.4067 Units=m
New Line.LINECmpd_25 Bus1=331 Bus2=383 phases=3 Linecode=4c_.25 Length=30.74332 Units=m
New Line.LINECmpd_26 Bus1=426 Bus2=460 phases=3 Linecode=2c_.04 Length=2.23389 Units=m
New Line.LINECmpd_27 Bus1=803 Bus2=841 phases=3 Linecode=2c_.04 Length=5.28008 Units=m
New Line.LINECmpd_28 Bus1=977 Bus2=1040 phases=3 Linecode=2c_.04 Length=13.54079 Units=m
New Line.LINECmpd_29 Bus1=1078 Bus2=1131 phases=3 Linecode=2c_.04 Length=12.92665 Units=m
New Line.LINECmpd_30 Bus1=45 Bus2=252 phases=3 Linecode=2c_.04 Length=14.314232 Units=m
New Line.LINECmpd_31 Bus1=279 Bus2=288 phases=3 Linecode=4c_.25 Length=14.0518 Units=m
New Line.LINECmpd_32 Bus1=192 Bus2=262 phases=3 Linecode=2c_.04 Length=16.44198 Units=m
New Line.LINECmpd_33 Bus1=198 Bus2=273 phases=3 Linecode=2c_.04 Length=14.57739 Units=m
New Line.LINECmpd_34 Bus1=841 Bus2=936 phases=3 Linecode=2c_.04 Length=12.81857 Units=m
New Line.LINECmpd_35 Bus1=457 Bus2=512 phases=3 Linecode=2c_.04 Length=2.614397 Units=m
New Line.LINECmpd_36 Bus1=1031 Bus2=1078 phases=3 Linecode=2c_.04 Length=10.31151 Units=m
New Line.LINECmpd_37 Bus1=321 Bus2=374 phases=3 Linecode=2c_.04 Length=13.021109 Units=m
New Line.LINECmpd_38 Bus1=797 Bus2=930 phases=3 Linecode=4c_.06 Length=28.53878 Units=m
New Line.LINECmpd_39 Bus1=784 Bus2=887 phases=3 Linecode=2c_.04 Length=12.82035 Units=m
New Line.LINECmpd_40 Bus1=602 Bus2=743 phases=3 Linecode=2c_.04 Length=12.55361 Units=m
New Line.LINECmpd_41 Bus1=996 Bus2=1031 phases=3 Linecode=2c_.04 Length=5.037589 Units=m
New Line.LINECmpd_42 Bus1=78 Bus2=151 phases=3 Linecode=2c_.04 Length=9.07832 Units=m
New Line.LINECmpd_43 Bus1=1058 Bus2=1094 phases=3 Linecode=2c_.04 Length=7.41228 Units=m
New Line.LINECmpd_44 Bus1=729 Bus2=873 phases=3 Linecode=4c_.06 Length=27.32223 Units=m
New Line.LINECmpd_45 Bus1=557 Bus2=646 phases=3 Linecode=4c_.06 Length=41.49598 Units=m
New Line.LINECmpd_46 Bus1=1057 Bus2=1097 phases=3 Linecode=2c_.04 Length=11.13017 Units=m
New Line.LINECmpd_47 Bus1=914 Bus2=989 phases=3 Linecode=2c_.04 Length=10.81534 Units=m
New Line.LINECmpd_48 Bus1=566 Bus2=639 phases=3 Linecode=2c_.04 Length=5.579113 Units=m
New Line.LINECmpd_49 Bus1=424 Bus2=450 phases=3 Linecode=4c_.25 Length=28.8555 Units=m
New Line.LINECmpd_50 Bus1=36 Bus2=45 phases=3 Linecode=4c_.25 Length=18.2882 Units=m
New Line.LINECmpd_51 Bus1=58 Bus2=95 phases=3 Linecode=2c_.04 Length=7.54919 Units=m
New Line.LINECmpd_52 Bus1=1094 Bus2=1133 phases=3 Linecode=2c_.04 Length=11.244208 Units=m
New Line.LINECmpd_53 Bus1=36 Bus2=68 phases=3 Linecode=2c_.04 Length=12.772926 Units=m
New Line.LINECmpd_54 Bus1=292 Bus2=354 phases=3 Linecode=2c_.04 Length=14.93553 Units=m
New Line.LINECmpd_55 Bus1=748 Bus2=784 phases=3 Linecode=2c_.04 Length=1.68039 Units=m
New Line.LINECmpd_56 Bus1=756 Bus2=793 phases=3 Linecode=2c_.04 Length=6.33168 Units=m
New Line.LINECmpd_57 Bus1=803 Bus2=848 phases=3 Linecode=2c_.04 Length=2.69254 Units=m
New Line.LINECmpd_58 Bus1=1097 Bus2=1129 phases=3 Linecode=2c_.04 Length=13.02313 Units=m
New Line.LINECmpd_59 Bus1=457 Bus2=503 phases=3 Linecode=2c_.04 Length=2.45067 Units=m
New Line.LINECmpd_60 Bus1=1035 Bus2=1058 phases=3 Linecode=2c_.04 Length=3.08325 Units=m
New Line.LINECmpd_61 Bus1=151 Bus2=173 phases=3 Linecode=2c_.04 Length=8.9464 Units=m
New Line.LINECmpd_62 Bus1=881 Bus2=915 phases=3 Linecode=2c_.04 Length=3.44817 Units=m
New Line.LINECmpd_63 Bus1=503 Bus2=642 phases=3 Linecode=2c_.04 Length=8.60349 Units=m
New Line.LINECmpd_64 Bus1=300 Bus2=316 phases=3 Linecode=4c_.25 Length=14.6489 Units=m
New Line.LINECmpd_65 Bus1=391 Bus2=426 phases=3 Linecode=2c_.04 Length=14.29098 Units=m
New Line.LINECmpd_66 Bus1=252 Bus2=267 phases=3 Linecode=2c_.04 Length=10.56562 Units=m
New Line.LINECmpd_67 Bus1=938 Bus2=977 phases=3 Linecode=2c_.04 Length=3.53269 Units=m
New Line.LINECmpd_68 Bus1=848 Bus2=953 phases=3 Linecode=2c_.04 Length=13.02534 Units=m
New Line.LINECmpd_69 Bus1=300 Bus2=339 phases=3 Linecode=2c_.04 Length=11.46834 Units=m
New Line.LINECmpd_70 Bus1=565 Bus2=602 phases=3 Linecode=2c_.04 Length=5.76895 Units=m
New Line.LINECmpd_71 Bus1=646 Bus2=729 phases=3 Linecode=4c_.06 Length=13.01791 Units=m
New Line.LINECmpd_72 Bus1=426 Bus2=466 phases=3 Linecode=2c_.04 Length=2.02088 Units=m
New Line.LINECmpd_73 Bus1=101 Bus2=198 phases=3 Linecode=2c_.04 Length=7.454113 Units=m
New Line.LINECmpd_74 Bus1=938 Bus2=976 phases=3 Linecode=2c_.04 Length=2.26856 Units=m
New Line.LINECmpd_75 Bus1=460 Bus2=536 phases=3 Linecode=2c_.04 Length=8.35417 Units=m
New Line.LINECmpd_76 Bus1=881 Bus2=914 phases=3 Linecode=2c_.04 Length=3.2694 Units=m
New Line.LINECmpd_77 Bus1=729 Bus2=748 phases=3 Linecode=4c_.04 Length=14.7998 Units=m
New Line.LINECmpd_78 Bus1=383 Bus2=405 phases=3 Linecode=2c_.04 Length=14.83321 Units=m
New Line.LINECmpd_79 Bus1=1035 Bus2=1057 phases=3 Linecode=2c_.04 Length=4.40961 Units=m
New Line.LINECmpd_80 Bus1=279 Bus2=302 phases=3 Linecode=2c_.04 Length=11.10681 Units=m
New Line.LINECmpd_81 Bus1=45 Bus2=52 phases=3 Linecode=4c_.25 Length=33.2654 Units=m
New Line.LINECmpd_82 Bus1=68 Bus2=83 phases=3 Linecode=2c_.04 Length=10.6066 Units=m
New Line.LINECmpd_83 Bus1=331 Bus2=359 phases=3 Linecode=2c_.04 Length=11.4613 Units=m
New Line.LINECmpd_84 Bus1=551 Bus2=566 phases=3 Linecode=4c_.04 Length=13.3284 Units=m
New Line.LINECmpd_85 Bus1=288 Bus2=300 phases=3 Linecode=4c_.25 Length=22.6832 Units=m
New Line.LINECmpd_86 Bus1=391 Bus2=424 phases=3 Linecode=4c_.25 Length=49.1507 Units=m
